  Page 1                                    Sun Oct 02 21:29:02 2022

  ******************************************************************
  *                           E P A N E T                          *
  *                   Hydraulic and Water Quality                  *
  *                   Analysis for Pipe Networks                   *
  *                         Version 2.2                            *
  ******************************************************************
  
  Analysis begun Sun Oct 02 21:29:02 2022

  Analysis ended Sun Oct 02 21:29:03 2022
